

 <DUALSPHYSICS4> Copyright (C) 2016 by
 Dr Jose M. Dominguez, Dr Alejandro Crespo,
 Prof. Moncho Gomez Gesteira, Dr Anxo Barreiro,
 Dr Benedict Rogers, Dr Georgios Fourtakas, Dr Athanasios Mokos,
 Dr Renato Vacondio, Dr Ricardo Canelas,
 Dr Stephen Longshaw, Dr Corrado Altomare.

 EPHYSLAB Environmental Physics Laboratory, Universidade de Vigo
 School of Mechanical, Aerospace and Civil Engineering, University of Manchester

 DualSPHysics is free software: you can redistribute it and/or
 modify it under the terms of the GNU General Public License as
 published by the Free Software Foundation, either version 3 of
 the License, or (at your option) any later version.

 DualSPHysics is distributed in the hope that it will be useful,
 but WITHOUT ANY WARRANTY; without even the implied warranty of
 MERCHANTABILITY or FITNESS FOR A PARTICULAR PURPOSE.  See the
 GNU General Public License for more details.

 You should have received a copy of the GNU General Public License,
 along with DualSPHysics. If not, see <http://www.gnu.org/licenses/>.


DualSPHysics4 v4.0.056 (18-05-2016)
====================================
[Select CUDA Device]
Device 0: "GeForce GTX 1070"
  Compute capability:        6.1
  Multiprocessors:           15 (-15 cores)
  Memory global:             8192 MB
  Clock rate:                1.78 GHz
  Run time limit on kernels: No
  ECC support enabled:       No

[GPU Hardware]
Device default: 0  "GeForce GTX 1070"
Compute capability: 6.1
Memory global: 8192 MB
Memory shared: 49152 Bytes
[Initialising JSphGpuSingle v0.70  20-02-2018 15:28:13]
**Basic case configuration is loaded
**Special case configuration is loaded
Loading initial state of particles...
Loaded particles: 23808
MapRealPos(border)=(-0.011,-0.000122474,-0.0101225)-(0.801,0.000122474,0.340122)
MapRealPos(final)=(-0.011,-0.000122474,-0.0101225)-(0.801,0.000122474,0.375147)
**Initial state of particles is loaded
**2D-Simulation parameters:
CaseName="CasePeriodicity"
RunName="CasePeriodicity"
PosDouble="1: Uses double and stores in single precision"
SvTimers=True
StepAlgorithm="Symplectic"
Kernel="Wendland"
Viscosity="Artificial"
Visco=0.200000
ViscoBoundFactor=1.000000
DeltaSph="Dynamic"
DeltaSphValue=0.100000
Shifting="None"
RigidAlgorithm="None"
FloatingCount=0
CaseNp=23808
CaseNbound=5002
CaseNfixed=5002
CaseNmoving=0
CaseNfloat=0
CaseNfluid=18806
PeriodicActive=1
PeriodicXinc=(-0.812,0,0.3)
Dx=0.002
H=0.002449
CoefficientH=0.866025
CteB=34475.144531
Gamma=7.000000
RhopZero=1000.000000
Cs0=15.5347
CFLnumber=0.200000
DtIni=0.000157679
DtMin=7.88394e-006
DtAllParticles=False
MassFluid=0.004000
MassBound=0.004000
Bwen (wendland)=-189509152.000000
TimeMax=6
TimePart=0.06
Gravity=(0.000000,0.000000,-9.810000)
NpMinimum=6883
RhopOut=True
RhopOutMin=700.000000
RhopOutMax=1300.000000
**Requested gpu memory for 23808 particles: 3.5 MB.
CellOrder="XYZ"
CellMode="2H"
Hdiv=1
MapCells=(168,1,79)
DomCells=(168,1,79)
DomCellCode="13_7_12"
 
BlockSize calculation mode: Empirical calculation.
  BsForcesBound=Dynamic (47 regs)
  BsForcesFluid=Dynamic (55 regs)
 
**JSphGpu: Requesting gpu memory for 25023 particles: 3.6 MB.
**CellDiv: Requested gpu memory for 25038 particles: 0.2 MB.
**CellDiv: Requested gpu memory for 23998 cells (CellMode=2H): 0.4 MB.
RunMode="Pos-Double, Single-Gpu"
Allocated memory in CPU: 2340070 (2.23 MB)
Allocated memory in GPU: 4391208 (4.19 MB)
Part_0000        23808 particles successfully stored

[Initialising simulation (uvi3r7sq)  20-02-2018 15:28:13]
PART       PartTime      TotalSteps    Steps    Time/Sec   Finish time        
=========  ============  ============  =======  =========  ===================
Part_0001      0.060020          1934     1934     108.04  20-02-2018 15:39:01
Part_0002      0.120000          3891     1957     107.16  20-02-2018 15:38:58
Part_0003      0.180006          5851     1960     107.37  20-02-2018 15:38:59
Part_0004      0.240007          7811     1960     107.93  20-02-2018 15:38:59
Part_0005      0.300001          9774     1963     109.59  20-02-2018 15:39:01
Part_0006      0.360016         11737     1963     107.41  20-02-2018 15:39:00
Part_0007      0.420010         13701     1964     107.68  20-02-2018 15:39:01
Part_0008      0.480006         15666     1965     107.82  20-02-2018 15:39:00
Part_0009      0.540007         17635     1969     107.54  20-02-2018 15:39:00
Part_0010      0.600023         19601     1966     107.16  20-02-2018 15:39:00
Part_0011      0.660007         21567     1966     107.85  20-02-2018 15:39:00
Part_0012      0.720017         23532     1965     107.60  20-02-2018 15:39:00
Part_0013      0.780026         25499     1967     107.16  20-02-2018 15:38:59
Part_0014      0.840017         27464     1965     106.88  20-02-2018 15:38:59
Part_0015      0.900007         29431     1967     108.38  20-02-2018 15:38:59
Part_0016      0.960018         31395     1964     107.37  20-02-2018 15:38:59
Part_0017      1.020017         33358     1963     111.20  20-02-2018 15:39:00
Part_0018      1.080008         35320     1962     104.48  20-02-2018 15:38:59
Part_0019      1.140026         37287     1967     104.07  20-02-2018 15:38:58
Part_0020      1.200013         39255     1968     105.50  20-02-2018 15:38:57
Part_0021      1.260020         41222     1967     103.94  20-02-2018 15:38:57
Part_0022      1.320020         43190     1968     104.88  20-02-2018 15:38:56
Part_0023      1.380008         45155     1965     104.65  20-02-2018 15:38:55
Part_0024      1.440021         47122     1967     104.40  20-02-2018 15:38:54
Part_0025      1.500021         49088     1966     105.20  20-02-2018 15:38:54
Part_0026      1.560021         51054     1966     105.97  20-02-2018 15:38:54
Part_0027      1.620015         53020     1966     104.18  20-02-2018 15:38:53
Part_0028      1.680020         54987     1967     103.72  20-02-2018 15:38:52
Part_0029      1.740020         56954     1967     107.05  20-02-2018 15:38:53
Part_0030      1.800007         58920     1966     107.56  20-02-2018 15:38:52
Part_0031      1.860007         60889     1969     104.64  20-02-2018 15:38:53
Part_0032      1.920013         62858     1969     104.33  20-02-2018 15:38:52
Part_0033      1.980026         64827     1969     104.70  20-02-2018 15:38:52
Part_0034      2.040007         66797     1970     104.96  20-02-2018 15:38:51
Part_0035      2.100021         68768     1971     105.14  20-02-2018 15:38:51
Part_0036      2.160004         70740     1972     105.86  20-02-2018 15:38:51
Part_0037      2.220028         72713     1973     104.52  20-02-2018 15:38:50
Part_0038      2.280025         74685     1972     105.11  20-02-2018 15:38:51
Part_0039      2.340006         76658     1973     106.82  20-02-2018 15:38:51
Part_0040      2.400002         78634     1976     105.64  20-02-2018 15:38:50
Part_0041      2.460022         80611     1977     105.23  20-02-2018 15:38:51
Part_0042      2.520027         82586     1975     104.61  20-02-2018 15:38:50
Part_0043      2.580002         84560     1974     104.47  20-02-2018 15:38:50
Part_0044      2.640026         86537     1977     105.16  20-02-2018 15:38:50
Part_0045      2.700010         88514     1977     104.73  20-02-2018 15:38:50
Part_0046      2.760021         90494     1980     106.96  20-02-2018 15:38:49
Part_0047      2.820020         92472     1978     104.17  20-02-2018 15:38:50
Part_0048      2.880011         94450     1978     103.89  20-02-2018 15:38:49
Part_0049      2.940005         96434     1984     105.73  20-02-2018 15:38:49
Part_0050      3.000003         98424     1990     105.11  20-02-2018 15:38:49
Part_0051      3.060006        100412     1988     104.80  20-02-2018 15:38:49
Part_0052      3.120006        102392     1980     104.66  20-02-2018 15:38:49
Part_0053      3.180028        104380     1988     105.25  20-02-2018 15:38:48
Part_0054      3.240009        106375     1995     105.21  20-02-2018 15:38:49
Part_0055      3.300006        108367     1992     104.79  20-02-2018 15:38:49
Part_0056      3.360030        110376     2009     106.56  20-02-2018 15:38:48
Part_0057      3.420021        112370     1994     105.89  20-02-2018 15:38:49
Part_0058      3.480016        114365     1995     105.95  20-02-2018 15:38:48
Part_0059      3.540027        116367     2002     105.79  20-02-2018 15:38:48
Part_0060      3.600014        118370     2003     105.51  20-02-2018 15:38:49
Part_0061      3.660026        120374     2004     106.33  20-02-2018 15:38:48
Part_0062      3.720027        122378     2004     105.68  20-02-2018 15:38:48
Part_0063      3.780003        124412     2034     107.40  20-02-2018 15:38:49
Part_0064      3.840022        126435     2023     106.69  20-02-2018 15:38:48
Part_0065      3.900007        128445     2010     106.30  20-02-2018 15:38:49
Part_0066      3.960023        130468     2023     107.18  20-02-2018 15:38:49
Part_0067      4.020017        132468     2000     108.67  20-02-2018 15:38:49
Part_0068      4.080009        134471     2003     108.01  20-02-2018 15:38:49
Part_0069      4.140003        136482     2011     106.50  20-02-2018 15:38:49
Part_0070      4.200012        138505     2023     109.04  20-02-2018 15:38:50
Part_0071      4.260029        140516     2011     113.66  20-02-2018 15:38:50
Part_0072      4.320019        142545     2029     111.44  20-02-2018 15:38:51
Part_0073      4.380028        144581     2036     110.46  20-02-2018 15:38:51
Part_0074      4.440003        146605     2024     108.64  20-02-2018 15:38:51
Part_0075      4.500015        148630     2025     108.33  20-02-2018 15:38:51
Part_0076      4.560009        150672     2042     109.64  20-02-2018 15:38:52
Part_0077      4.620022        152745     2073     114.28  20-02-2018 15:38:53
Part_0078      4.680007        154826     2081     113.18  20-02-2018 15:38:52
Part_0079      4.740014        156895     2069     111.86  20-02-2018 15:38:53
Part_0080      4.800002        158959     2064     110.35  20-02-2018 15:38:54
Part_0081      4.860004        161012     2053     110.84  20-02-2018 15:38:53
Part_0082      4.920023        163082     2070     112.06  20-02-2018 15:38:54
Part_0083      4.980017        165140     2058     110.77  20-02-2018 15:38:55
Part_0084      5.040025        167202     2062     111.20  20-02-2018 15:38:54
Part_0085      5.100029        169270     2068     111.94  20-02-2018 15:38:55
Part_0086      5.160017        171341     2071     112.26  20-02-2018 15:38:55
Part_0087      5.220005        173409     2068     112.92  20-02-2018 15:38:56
Part_0088      5.280004        175467     2058     111.50  20-02-2018 15:38:56
Part_0089      5.340028        177548     2081     112.82  20-02-2018 15:38:56
Part_0090      5.400007        179597     2049     110.47  20-02-2018 15:38:57
Part_0091      5.460011        181646     2049     110.46  20-02-2018 15:38:56
Part_0092      5.520007        183697     2051     110.04  20-02-2018 15:38:57
Part_0093      5.580008        185760     2063     110.86  20-02-2018 15:38:58
Part_0094      5.640007        187859     2099     113.40  20-02-2018 15:38:57
Part_0095      5.700007        189955     2096     112.83  20-02-2018 15:38:58
Part_0096      5.760028        192028     2073     112.47  20-02-2018 15:38:58
Part_0097      5.820020        194111     2083     112.58  20-02-2018 15:38:59
Part_0098      5.880001        196187     2076     112.53  20-02-2018 15:38:58
Part_0099      5.940016        198268     2081     112.20  20-02-2018 15:38:59
Part_0100      6.000021        200317     2049     110.18  20-02-2018 15:39:00

[Simulation finished  20-02-2018 15:39:00]
Particles of simulation (initial): 23808
DTs adjusted to DtMin............: 0
Excluded particles...............: 0
Total Runtime....................: 646.540466 sec.
Simulation Runtime...............: 646.463196 sec.
Time per second of simulation....: 107.743492 sec.
Steps per second.................: 309.866058
Steps of simulation..............: 200317
PART files.......................: 101
Maximum number of particles......: 23877
Maximum number of cells..........: 11760
CPU Memory.......................: 2340070 (2.23 MB)
GPU Memory.......................: 4391208 (4.19 MB)

[GPU Timers]
VA-Init..........................: 0.016599 sec.
NL-Limits........................: 73.302559 sec.
NL-PreSort.......................: 1.679838 sec.
NL-RadixSort.....................: 75.533157 sec.
NL-CellBegin.....................: 28.794302 sec.
NL-SortData......................: 6.831514 sec.
NL-OutCheck......................: 0.508325 sec.
CF-PreForces.....................: 45.410786 sec.
CF-Forces........................: 103.453590 sec.
SU-Shifting......................: 0.000000 sec.
SU-ComputeStep...................: 10.752744 sec.
SU-Floating......................: 0.000000 sec.
SU-Motion........................: 0.000000 sec.
SU-Periodic......................: 81.610229 sec.
SU-ResizeNp......................: 0.000000 sec.
SU-DownData......................: 0.066096 sec.
SU-SavePart......................: 0.000139 sec.
 
